17
non-opt
H	-2.439293	0.446515	-0.881847
N	-2.463032	-0.187035	-0.078697
H	-2.455363	0.453097	0.719585
C	-1.190892	-0.925824	-0.062699
H	-1.146216	-1.554997	0.831543
H	-1.127613	-1.561358	-0.951305
C	0.000000	0.000000	0.000000
O	-0.134714	1.222869	-0.000036
N	1.222777	-0.618542	-0.000156
H	1.304283	-1.632462	-0.000217
C	2.458199	0.138569	-0.000499
H	2.486567	0.767493	0.894679
H	2.486320	0.767065	-0.895984
C	3.646552	-0.820042	-0.000447
O	3.510364	-2.042717	-0.000348
O	4.824725	-0.088976	-0.056713
H	5.502109	-0.798264	-0.060384
